OPT_V10/Two_days_MCY3_MIQCPM1/powerflow_results_t33.txt
Pandapower Network Debug Info
==================================================

BUS:
       vm_pu  va_degree      p_mw    q_mvar
0   0.995129   0.263782 -0.000095  0.000931
1   0.992215   0.427726  0.000064  0.002207
2   0.989395   0.565987  0.000646  0.003122
3   0.991999   0.417581  0.000964  0.004720
4   0.999897   0.001700  0.007668  0.010331
5   0.999884   0.001829  0.009288  0.010474
6   0.999874   0.001922  0.010568  0.011531
7   0.999937   0.001218  0.000000  0.000000
8   0.999937   0.001225  0.000000  0.000000
9   1.000000   0.000000 -0.029229 -0.048399
10  1.000000   0.000007  0.000000  0.000000
--------------------------------------------------

LINE:
   p_from_mw  q_from_mvar   p_to_mw  q_to_mvar         pl_mw       ql_mvar  i_from_ka   i_to_ka      i_ka  vm_from_pu  va_from_degree  vm_to_pu  va_to_degree  loading_percent
0   0.029219     0.044399 -0.029216  -0.044397  2.763211e-06  2.154521e-06   0.002046  0.002046  0.002046    1.000000        0.000007  0.999937      0.001218         0.889464
1   0.027526     0.032338 -0.027524  -0.032337  1.394711e-06  1.087479e-06   0.001635  0.001635  0.001635    0.999937        0.001218  0.999897      0.001700         0.710712
2   0.001680     0.011059 -0.001622  -0.011013  5.853142e-05  4.563791e-05   0.016147  0.016147  0.016147    0.999937        0.001225  0.995129      0.263782         7.020254
3  -0.019856    -0.022005  0.019856   0.022006  3.038702e-07  2.369326e-07   0.001141  0.001141  0.001141    0.999884        0.001829  0.999897      0.001700         0.496064
4  -0.010568    -0.011531  0.010568   0.011531  1.196789e-07  9.331561e-08   0.000602  0.000602  0.000602    0.999874        0.001922  0.999884      0.001829         0.261785
5  -0.000720    -0.005336  0.000737   0.005350  1.742497e-05  1.358654e-05   0.007833  0.007833  0.007833    0.992215        0.427726  0.995129      0.263782         3.405762
6  -0.000964    -0.004720  0.000979   0.004732  1.574579e-05  1.227725e-05   0.007009  0.007009  0.007009    0.991999        0.417581  0.995129      0.263782         3.047531
7  -0.000646    -0.003122  0.000655   0.003130  9.393970e-06  7.324633e-06   0.004651  0.004651  0.004651    0.989395        0.565987  0.992215      0.427726         2.022317
--------------------------------------------------

TRAFO:
    p_hv_mw  q_hv_mvar   p_lv_mw  q_lv_mvar    pl_mw  ql_mvar   i_hv_ka   i_lv_ka  vm_hv_pu  va_hv_degree  vm_lv_pu  va_lv_degree  loading_percent
0  0.001690   0.012059 -0.001680  -0.011059  0.00001    0.001  0.000469  0.016147  0.999937      0.001218  0.999937      0.001225         0.121775
1  0.029229   0.048399 -0.029219  -0.044399  0.00001    0.004  0.000466  0.002046  1.000000      0.000000  1.000000      0.000007         0.141350
--------------------------------------------------
